Circuit: * C:\Users\User\Documents\LTspiceXVII\Draft5.asc

Direct Newton iteration for .op point succeeded.

Date: Wed Jan 20 12:46:28 2021
Total elapsed time: 0.081 seconds.

tnom = 27
temp = 27
method = modified trap
totiter = 2092
traniter = 2088
tranpoints = 1045
accept = 1045
rejected = 0
matrix size = 11
fillins = 0
solver = Normal
Matrix Compiler1: 270 bytes object code size  0.1/0.1/[0.0]
Matrix Compiler2: 571 bytes object code size  0.1/0.1/[0.1]

