Circuit: * C:\Users\User\Documents\LTspiceXVII\Draft3.asc


Date: Tue Jan 19 19:07:57 2021
Total elapsed time: 0.059 seconds.

tnom = 27
temp = 27
method = trap
totiter = 0
traniter = 0
tranpoints = 0
accept = 0
rejected = 0
matrix size = 5
fillins = 1
solver = Normal

