Circuit: * C:\Users\User\Documents\LTspiceXVII\Draft7.asc

Direct Newton iteration for .op point succeeded.
N-Period=100
Fourier components of V(reference)
DC component:6.90927e-017

Harmonic	Frequency	 Fourier 	Normalized	 Phase  	Normalized
 Number 	  [Hz]   	Component	 Component	[degree]	Phase [deg]
    1   	1.000e+03	1.000e+00	1.000e+00	   -0.00°	    0.00°
    2   	2.000e+03	6.994e-15	6.994e-15	   -0.14°	   -0.14°
    3   	3.000e+03	1.075e-14	1.075e-14	   -0.51°	   -0.51°
    4   	4.000e+03	1.418e-14	1.418e-14	   -0.17°	   -0.17°
    5   	5.000e+03	1.774e-14	1.774e-14	   -0.16°	   -0.16°
    6   	6.000e+03	2.135e-14	2.135e-14	   -0.15°	   -0.15°
    7   	7.000e+03	2.487e-14	2.487e-14	   -0.17°	   -0.17°
    8   	8.000e+03	2.841e-14	2.841e-14	   -0.23°	   -0.23°
    9   	9.000e+03	3.203e-14	3.203e-14	   -0.10°	   -0.10°
   10   	1.000e+04	3.553e-14	3.553e-14	   -0.17°	   -0.17°
Total Harmonic Distortion: 0.000000%(0.000975%)

.fourier quantity "V(out)" not pressent in data.


Date: Wed Jan 20 13:29:39 2021
Total elapsed time: 7.954 seconds.

tnom = 27
temp = 27
method = modified trap
totiter = 2000040
traniter = 2000034
tranpoints = 1000018
accept = 1000018
rejected = 0
matrix size = 9
fillins = 0
solver = Normal
Matrix Compiler1: 474 bytes object code size  0.2/0.1/[0.1]
Matrix Compiler2: 701 bytes object code size  0.1/0.1/[0.1]

