Circuit: * C:\Users\User\Documents\LTspiceXVII\Draft6.asc

Direct Newton iteration for .op point succeeded.
.step upper=1000 lower=1000
.step upper=10000 lower=1000
.step upper=100000 lower=1000
.step upper=1000 lower=2000
.step upper=10000 lower=2000
.step upper=100000 lower=2000
.step upper=1000 lower=3000
.step upper=10000 lower=3000
.step upper=100000 lower=3000
.step upper=1000 lower=4000
.step upper=10000 lower=4000
.step upper=100000 lower=4000
.step upper=1000 lower=5000
.step upper=10000 lower=5000
.step upper=100000 lower=5000
.step upper=1000 lower=6000
.step upper=10000 lower=6000
.step upper=100000 lower=6000
.step upper=1000 lower=7000
.step upper=10000 lower=7000
.step upper=100000 lower=7000
.step upper=1000 lower=8000
.step upper=10000 lower=8000
.step upper=100000 lower=8000
.step upper=1000 lower=9000
.step upper=10000 lower=9000
.step upper=100000 lower=9000
.step upper=1000 lower=10000
.step upper=10000 lower=10000
.step upper=100000 lower=10000

Date: Tue Jan 19 20:04:55 2021
Total elapsed time: 1.190 seconds.

tnom = 27
temp = 27
method = modified trap
totiter = 2091
traniter = 2088
tranpoints = 1045
accept = 1045
rejected = 0
matrix size = 3
fillins = 0
solver = Normal
Matrix Compiler1:       3 opcodes  0.0/0.0/[0.0]
Matrix Compiler2:      15 opcodes  0.1/[0.1]/0.1

